nrt/data/SMIB/SMIB_BasicTestCases/SMIB_1_StepPm_IIDM/4/reference/outputs/finalState/outputIIDM.xml
<?xml version="1.0" encoding="UTF-8"?>
<iidm:network xmlns:iidm="http://www.powsybl.org/schema/iidm/1_5" id="test" caseDate="2022-06-02T10:09:24.686000+02:00" forecastDistance="0" sourceFormat="test">
    <iidm:substation id="S1" name="S1_NAME" country="FR" tso="TSO">
        <iidm:voltageLevel id="VL1" name="VL1_NAME" nominalV="1" lowVoltageLimit="0.80000000000000004" highVoltageLimit="1.2" topologyKind="BUS_BREAKER">
            <iidm:busBreakerTopology>
                <iidm:bus id="VL1_BUS1" v="0.90081" angle="0"/>
            </iidm:busBreakerTopology>
            <iidm:generator id="InfiniteBus" energySource="OTHER" minP="-10000" maxP="10000" voltageRegulatorOn="false" targetP="0" targetV="1" targetQ="0" bus="VL1_BUS1" connectableBus="VL1_BUS1" p="-0" q="-0">
                <iidm:minMaxReactiveLimits minQ="-1.7976931348623157e+308" maxQ="1.7976931348623157e+308"/>
            </iidm:generator>
        </iidm:voltageLevel>
    </iidm:substation>
    <iidm:substation id="S2" name="S2_NAME" country="FR" tso="TSO">
        <iidm:voltageLevel id="VL2" name="VL2_NAME" nominalV="1" lowVoltageLimit="0.80000000000000004" highVoltageLimit="1.2" topologyKind="BUS_BREAKER">
            <iidm:busBreakerTopology>
                <iidm:bus id="VL2_BUS1" v="0.94187866081597826" angle="20.642214782102592"/>
            </iidm:busBreakerTopology>
        </iidm:voltageLevel>
        <iidm:voltageLevel id="VL3" name="VL3_NAME" nominalV="1" lowVoltageLimit="0.80000000000000004" highVoltageLimit="1.2" topologyKind="BUS_BREAKER">
            <iidm:busBreakerTopology>
                <iidm:bus id="VL3_BUS1" v="0.99824220385739237" angle="29.072433877335367"/>
            </iidm:busBreakerTopology>
            <iidm:generator id="SM" energySource="NUCLEAR" minP="0" maxP="2200" voltageRegulatorOn="true" targetP="2220" targetV="1" targetQ="967.90335900000002" bus="VL3_BUS1" connectableBus="VL3_BUS1" p="-2042.091612171803" q="-984.05093685584791">
                <iidm:minMaxReactiveLimits minQ="-1.7976931348623157e+308" maxQ="1.7976931348623157e+308"/>
            </iidm:generator>
        </iidm:voltageLevel>
        <iidm:twoWindingsTransformer id="TR" r="0" x="6.7500000000000001e-05" g="0" b="0" ratedU1="1" ratedU2="1" bus1="VL2_BUS1" connectableBus1="VL2_BUS1" voltageLevelId1="VL2" bus2="VL3_BUS1" connectableBus2="VL3_BUS1" voltageLevelId2="VL3" p1="-2042.0916121718019" q1="-635.97996479693904" p2="2042.0916121718014" q2="984.05093685584882"/>
    </iidm:substation>
    <iidm:line id="line1" r="0" x="0.00022521999999999999" g1="0" b1="0" g2="0" b2="0" bus1="VL1_BUS1" connectableBus1="VL1_BUS1" voltageLevelId1="VL1" bus2="VL2_BUS1" connectableBus2="VL2_BUS1" voltageLevelId2="VL2" p1="-1328.0633676003979" q1="77.593581245477068" p2="1328.0633676003979" q2="413.60617160379621"/>
    <iidm:line id="line2" r="0" x="0.00041889999999999999" g1="0" b1="0" g2="0" b2="0" bus1="VL1_BUS1" connectableBus1="VL1_BUS1" voltageLevelId1="VL1" bus2="VL2_BUS1" connectableBus2="VL2_BUS1" voltageLevelId2="VL2" p1="-714.02824457140491" q1="41.717895364302308" p2="714.02824457140491" q2="222.37379319314181"/>
</iidm:network>
